23

N -0.746037 -1.539880 0.333731
C -2.044143 -1.396258 0.747514
C -2.613891 0.060676 0.726040
F -3.746326 0.051083 -0.057548
F -2.983455 0.378145 2.013872
C -1.669252 1.196447 0.199813
C -0.295113 0.816038 -0.201353
C 0.602606 1.799276 -0.674777
C 1.906312 1.460263 -1.057510
C 2.345351 0.113612 -0.980820
C 1.452328 -0.870163 -0.502816
C 0.141181 -0.535796 -0.121143
S 3.978460 -0.417518 -1.407020
C 4.862810 -0.401053 0.173275
O -2.688746 -2.369857 1.109854
O -2.066104 2.356105 0.135262
H 2.569300 2.250566 -1.408504
H 0.254751 2.831031 -0.733849
H -0.436422 -2.501460 0.371381
H 1.785217 -1.906332 -0.427896
H 4.935604 0.629368 0.534892
H 4.322226 -1.012089 0.902780
H 5.866647 -0.809708 0.022947
