23

N -0.518394 -1.643500 -0.295570
C -1.820991 -1.820843 0.089869
C -2.509099 -0.590868 0.769539
F -3.609910 -0.262164 0.010395
F -2.946708 -0.995335 2.011044
C -1.646128 0.705236 0.958037
C -0.250253 0.678954 0.463579
C 0.573254 1.818454 0.605829
C 1.894546 1.814952 0.141830
C 2.425450 0.660530 -0.489141
C 1.610426 -0.484646 -0.618332
C 0.284166 -0.486855 -0.152610
S 4.082673 0.535457 -1.093396
C 3.976434 1.234426 -2.760171
O -2.382679 -2.889386 -0.103759
O -2.125288 1.699808 1.494621
H 2.499261 2.710585 0.281982
H 0.154302 2.701204 1.090057
H -0.131180 -2.471596 -0.727142
H 2.016564 -1.382920 -1.085653
H 3.345212 0.592280 -3.382433
H 3.543232 2.238109 -2.708540
H 4.981840 1.289197 -3.187968
