23

N -1.159389 -1.399276 -0.212524
C -2.461658 -1.002408 -0.059801
C -2.686052 0.520300 0.221910
F -3.501939 1.009655 -0.773536
F -3.357624 0.624724 1.419514
C -1.414131 1.434302 0.298687
C -0.094378 0.791945 0.100852
C 1.086590 1.562551 0.162448
C 2.345350 0.974885 -0.020943
C 2.459451 -0.419313 -0.280667
C 1.274007 -1.187400 -0.333708
C 0.008746 -0.603422 -0.148997
S 3.959025 -1.350267 -0.523917
C 5.392125 -0.265134 -0.250010
O -3.369794 -1.816388 -0.144721
O -1.523315 2.636986 0.517620
H 3.217519 1.621708 0.038308
H 0.994397 2.631475 0.358939
H -1.080847 -2.391286 -0.390115
H 1.340058 -2.260550 -0.520949
H 5.929645 -0.613910 0.637242
H 6.050714 -0.333718 -1.121394
H 5.097207 0.774759 -0.108346
