23

N -1.045038 -1.494723 0.149296
C -2.347804 -1.160019 0.410777
C -2.657126 0.371000 0.503816
F -3.614064 0.657635 -0.443583
F -3.197199 0.609293 1.747732
C -1.459715 1.362266 0.297577
C -0.125827 0.780175 0.024066
C 0.989569 1.623914 -0.169983
C 2.260698 1.095065 -0.429669
C 2.453182 -0.312270 -0.503216
C 1.335204 -1.153317 -0.303159
C 0.056777 -0.627912 -0.045518
S 3.993304 -1.159483 -0.781887
C 5.316152 0.084182 -0.822934
O -3.193027 -2.031396 0.556480
O -1.636169 2.575261 0.362520
H 3.079686 1.794031 -0.589713
H 0.836223 2.702164 -0.112118
H -0.910101 -2.495343 0.100651
H 1.466601 -2.236046 -0.340938
H 5.521514 0.356027 -1.862774
H 5.053315 0.963477 -0.230456
H 6.217471 -0.366254 -0.395152
