23

N -0.884886 -1.452294 0.184756
C -2.156013 -1.182041 0.618909
C -2.558592 0.329420 0.663058
F -3.665785 0.485967 -0.140363
F -2.921204 0.623067 1.958611
C -1.481439 1.376511 0.212945
C -0.162741 0.861650 -0.222001
C 0.846916 1.759720 -0.634532
C 2.100345 1.293706 -1.050143
C 2.375084 -0.098498 -1.064575
C 1.371085 -0.997112 -0.643654
C 0.110085 -0.534591 -0.228476
S 3.928010 -0.804675 -1.535069
C 5.079295 -0.191667 -0.278457
O -2.904588 -2.091869 0.945594
O -1.735805 2.577276 0.227614
H 2.849639 2.021141 -1.361040
H 0.624730 2.827235 -0.621382
H -0.685333 -2.443243 0.178868
H 1.578015 -2.068220 -0.637220
H 5.173503 0.894706 -0.368297
H 4.701321 -0.448983 0.716069
H 6.056393 -0.659269 -0.432180
