23

N -0.957621 -1.546831 0.144770
C -2.291844 -1.280296 0.307050
C -2.688658 0.232225 0.357263
F -3.586173 0.458334 -0.662423
F -3.331964 0.451039 1.555072
C -1.533900 1.285003 0.228479
C -0.153770 0.773497 0.062670
C 0.927208 1.674952 -0.050673
C 2.240288 1.213037 -0.207401
C 2.508477 -0.181544 -0.266252
C 1.427061 -1.081817 -0.141938
C 0.107808 -0.623596 0.020709
S 4.111180 -0.928252 -0.436611
C 5.153784 0.297503 -1.273110
O -3.097740 -2.194564 0.402439
O -1.779973 2.486950 0.265721
H 3.037927 1.950648 -0.275990
H 0.713662 2.743584 -0.010306
H -0.767252 -2.539293 0.118672
H 1.618313 -2.155686 -0.170386
H 4.776564 0.462334 -2.287219
H 5.167844 1.232524 -0.706391
H 6.172469 -0.098071 -1.333255
