23

N -1.072273 -1.482630 -0.009275
C -2.394122 -1.148834 0.127115
C -2.709442 0.381124 0.220672
F -3.567341 0.690499 -0.810717
F -3.369798 0.595580 1.409832
C -1.496033 1.372227 0.154644
C -0.142302 0.790683 0.003116
C 0.988661 1.632842 -0.059366
C 2.278392 1.104080 -0.202286
C 2.475758 -0.301878 -0.294369
C 1.340522 -1.140892 -0.221190
C 0.044380 -0.616009 -0.076774
S 4.027469 -1.163184 -0.452981
C 5.394290 0.032259 -0.348553
O -3.250437 -2.020333 0.169342
O -1.676193 2.584082 0.227197
H 3.109299 1.804465 -0.240167
H 0.832896 2.710143 0.008537
H -0.934511 -2.482688 -0.062936
H 1.470807 -2.223251 -0.274945
H 5.036178 1.061416 -0.315020
H 5.970941 -0.176406 0.558002
H 6.037766 -0.095990 -1.224508
