23

N -1.011167286364 -1.500920738036 0.183143555344
C -2.289786999271 -1.155343611439 0.532730294192
C -2.590861731113 0.363057629651 0.512566479302
F -3.231701265113 0.606541584492 -0.674268602996
F -3.435259082285 0.648097108565 1.513769172927
C -1.374667765613 1.326678075409 0.556073135042
C -0.085552408771 0.754423717199 0.154192627688
C 1.030125124653 1.579934620573 -0.019735272301
C 2.261226064628 1.063878901542 -0.380172068511
C 2.400255527743 -0.319878907526 -0.578443280222
C 1.300591307689 -1.159927424922 -0.377057612794
C 0.063883979623 -0.631486721896 -0.022821608949
S 3.900349131734 -1.128400327531 -1.031658721780
C 5.146925857436 0.181728591768 -1.029555401805
O -3.147908658692 -1.969437747165 0.781907280675
O -1.553881424638 2.484926658173 0.859182746600
H 3.102238197951 1.735412811467 -0.497428501326
H 0.902386497722 2.646325537515 0.140186952096
H -0.842585041471 -2.498106528857 0.126324831903
H 1.411680417710 -2.234268780590 -0.503731742437
H 5.944168449339 -0.157995139544 -1.693730621355
H 4.757962815185 1.105046708150 -1.463963655780
H 5.539144951483 0.372690589512 -0.028872954317
