23

N -0.996415 -1.539396 0.135216
C -2.284605 -1.263908 0.512166
C -2.623267 0.245890 0.744658
F -3.652421 0.575108 -0.108793
F -3.078513 0.373092 2.037974
C -1.467901 1.284915 0.533638
C -0.142482 0.764499 0.126227
C 0.936871 1.652855 -0.073157
C 2.198354 1.182550 -0.460363
C 2.414594 -0.207924 -0.664528
C 1.335460 -1.095290 -0.455966
C 0.067737 -0.628510 -0.066857
S 3.950453 -0.971369 -1.130077
C 5.193231 0.348838 -1.151345
O -3.095956 -2.168185 0.648727
O -1.669159 2.483665 0.704021
H 2.995960 1.910881 -0.599071
H 0.762692 2.718138 0.082214
H -0.841834 -2.529119 -0.000934
H 1.487885 -2.166462 -0.597865
H 6.176934 -0.096374 -1.329330
H 4.960875 1.055887 -1.953713
H 5.200003 0.860830 -0.184109
