23

N -1.138803 -1.436657 -0.067070
C -2.440787 -1.052996 0.120490
C -2.683335 0.480511 0.312273
F -3.550420 0.888233 -0.676527
F -3.305120 0.652079 1.528880
C -1.427915 1.419366 0.272852
C -0.105708 0.788965 0.053021
C 1.060174 1.583773 0.005210
C 2.320261 1.008781 -0.206579
C 2.450749 -0.397523 -0.375444
C 1.282237 -1.190363 -0.317671
C 0.014815 -0.618013 -0.111040
S 3.963407 -1.303142 -0.621527
C 5.350597 -0.138069 -0.481213
O -3.335482 -1.885971 0.131296
O -1.551798 2.631686 0.419337
H 3.180375 1.673747 -0.257880
H 0.954268 2.661458 0.135509
H -1.048517 -2.436613 -0.183727
H 1.363589 -2.272608 -0.432313
H 5.074748 0.732995 0.117082
H 6.194544 -0.650943 -0.009866
H 5.637954 0.188386 -1.485502
