23

N -1.039757 -1.491539 0.160686
C -2.338746 -1.163265 0.447779
C -2.656385 0.366411 0.533001
F -3.574224 0.651895 -0.452445
F -3.248012 0.600375 1.754632
C -1.454346 1.361214 0.376287
C -0.124092 0.786280 0.070901
C 0.994108 1.632177 -0.092544
C 2.258494 1.110883 -0.397427
C 2.443284 -0.292086 -0.545260
C 1.326360 -1.136414 -0.349902
C 0.055734 -0.619034 -0.043469
S 3.963171 -1.145391 -0.915886
C 5.332858 0.050486 -0.954378
O -3.176289 -2.038725 0.611069
O -1.626866 2.570985 0.490754
H 3.077622 1.815324 -0.522804
H 0.847374 2.707097 0.018714
H -0.900653 -2.491571 0.110477
H 1.449409 -2.216738 -0.444751
H 5.854414 -0.047815 -1.911631
H 4.982472 1.076878 -0.843291
H 6.024347 -0.184602 -0.139369
