23

N -0.964835645231 -1.523397464431 0.244583673584
C -2.253764697673 -1.197601046289 0.573936919044
C -2.591420993666 0.312263589249 0.559860585683
F -3.428436705744 0.520003249481 -0.493520926159
F -3.262024907429 0.594051615644 1.695565326554
C -1.415422378645 1.314356801421 0.407402005014
C -0.106414472591 0.751424845663 0.064641423752
C 0.979028355080 1.597943536137 -0.184066041894
C 2.225637550412 1.096635908878 -0.511217962909
C 2.410031024105 -0.293169768602 -0.596864617528
C 1.338072766748 -1.152317038345 -0.333485153691
C 0.085868151672 -0.638639310225 -0.014244425460
S 3.947687504959 -1.065867614436 -0.971937285944
C 5.108938095688 0.317777272490 -1.056739545777
O -3.096446979884 -2.025907902803 0.829651717727
O -1.642789537594 2.494710162831 0.554667823711
H 3.041616916844 1.782473900249 -0.704251002075
H 0.814947400725 2.668974382937 -0.114700619878
H -0.774552629230 -2.518158075177 0.224426640521
H 1.484057540305 -2.228826134901 -0.379064375147
H 4.889151736129 0.983521077358 -1.895011032976
H 5.133275183455 0.878045525861 -0.118740510915
H 6.089744727187 -0.134800514835 -1.219490947443
