23

N -1.071580 -1.484406 0.163644
C -2.379234 -1.146555 0.393066
C -2.694841 0.385428 0.429305
F -3.666387 0.630102 -0.515210
F -3.218975 0.669403 1.670285
C -1.504779 1.373742 0.169308
C -0.163603 0.787913 -0.058061
C 0.949195 1.627305 -0.283537
C 2.228808 1.093881 -0.487345
C 2.428953 -0.314447 -0.491633
C 1.312390 -1.150671 -0.267057
C 0.028100 -0.620645 -0.053652
S 3.975132 -1.168968 -0.705231
C 5.290557 0.078226 -0.789526
O -3.222584 -2.016010 0.558949
O -1.691328 2.586908 0.166106
H 3.054259 1.790385 -0.620763
H 0.788729 2.706051 -0.286534
H -0.931680 -2.485467 0.155230
H 1.448866 -2.233299 -0.252247
H 4.942679 0.971303 -1.313977
H 5.588584 0.345890 0.229013
H 6.146770 -0.348127 -1.321098
