23

N -0.439934 -1.283647 0.937483
C -1.772739 -1.253336 1.253577
C -2.587811 -0.048609 0.677258
F -3.597188 -0.568167 -0.101914
F -3.160464 0.610571 1.742131
C -1.806269 1.004932 -0.181845
C -0.359531 0.775299 -0.399771
C 0.394738 1.689672 -1.166006
C 1.763798 1.490582 -1.381114
C 2.428928 0.358571 -0.838709
C 1.669903 -0.551028 -0.062310
C 0.293867 -0.357355 0.157739
S 4.178440 0.104296 -1.077674
C 4.641522 -1.493551 -0.350037
O -2.263363 -2.133420 1.946125
O -2.385988 1.979133 -0.652048
H 2.305026 2.229662 -1.972420
H -0.115675 2.557494 -1.584845
H 0.028236 -2.085580 1.337114
H 2.151440 -1.417664 0.386616
H 4.501081 -1.456169 0.734569
H 4.031144 -2.288731 -0.788853
H 5.696020 -1.685538 -0.570907
