23

N -1.067043 -1.479564 0.223183
C -2.381202 -1.139762 0.410614
C -2.707431 0.390051 0.365432
F -3.653208 0.582709 -0.616763
F -3.267939 0.729067 1.576585
C -1.516933 1.373048 0.091164
C -0.169129 0.785930 -0.087276
C 0.941278 1.621920 -0.334649
C 2.224367 1.087718 -0.511220
C 2.435188 -0.317305 -0.441365
C 1.322309 -1.149659 -0.184820
C 0.031491 -0.619521 -0.014410
S 3.989553 -1.169400 -0.603841
C 5.304922 0.075967 -0.741418
O -3.222538 -2.005895 0.601428
O -1.709407 2.583916 0.032170
H 3.038098 1.779377 -0.720775
H 0.773823 2.698361 -0.386600
H -0.921375 -2.478949 0.266096
H 1.466421 -2.228946 -0.112630
H 4.999080 1.022605 -0.290852
H 6.197666 -0.297004 -0.230153
H 5.530037 0.233280 -1.800865
