23

N -1.069437274833 -1.471690990873 -0.114119530135
C -2.385068441424 -1.099927642042 -0.015187004649
C -2.597025937301 0.376948803185 0.386261134237
F -3.796625446433 0.789466259056 -0.032496704539
F -2.588660960256 0.394874460324 1.761193575044
C -1.486521684422 1.363949108897 -0.053602467121
C -0.140651922885 0.782688008471 -0.113475008745
C 0.988506592404 1.602691998729 -0.177093829989
C 2.265606783828 1.072930598351 -0.242474043440
C 2.438242505172 -0.319140635186 -0.267260685856
C 1.313802380519 -1.151560453651 -0.201167109765
C 0.034821644586 -0.611870063428 -0.132879490865
S 3.976430900484 -1.185261462960 -0.329318026001
C 5.298970879477 0.057591110453 -0.220546043347
O -3.305562030883 -1.870111808250 -0.154301994290
O -1.757869496881 2.523703470483 -0.265296498603
H 3.108220786917 1.751212368123 -0.283452963119
H 0.839475444536 2.678114101879 -0.165392027513
H -0.917874255701 -2.457444259230 -0.290116046839
H 1.442241972659 -2.231218090328 -0.205696818786
H 4.913915932711 1.075734313879 -0.245407251052
H 5.845594923322 -0.083871401167 0.713702868993
H 5.974372340870 -0.080502741007 -1.066504615896
