23

N -0.506573465001 -1.640982599277 -0.299840265913
C -1.809139458737 -1.801171155212 0.091348825532
C -2.471431228869 -0.572509828881 0.759917381067
F -3.571034362761 -0.261458904957 0.032541642257
F -2.872131722516 -0.953566095072 1.997213627723
C -1.619659677275 0.718124883080 0.913699900985
C -0.229940275228 0.669935338453 0.431059699082
C 0.593608128233 1.794476806660 0.563080397441
C 1.904116296269 1.770167360292 0.118312663746
C 2.408020958647 0.608187918419 -0.483322759829
C 1.601847788223 -0.518860541453 -0.615497490004
C 0.281932240212 -0.495345944080 -0.158445761514
S 4.105439705235 0.543099075173 -1.040803949226
C 3.900570972940 1.265281381307 -2.701595781587
O -2.421434936256 -2.831542770575 -0.066928446572
O -2.135685243761 1.689078337787 1.418162675096
H 2.545572926676 2.637121667760 0.237695957640
H 0.176762539721 2.681093847004 1.030906077729
H -0.093367788205 -2.459636015499 -0.730571154057
H 2.007398394427 -1.417867900000 -1.071823241550
H 3.293458760565 0.617917828536 -3.338497282456
H 3.456023933654 2.261559726420 -2.643733847387
H 4.902376794329 1.347976993148 -3.130816257707
