23

N -0.778463804683 -1.563868308038 0.194377134934
C -2.076570433900 -1.379089772934 0.592149533122
C -2.439653531433 0.093493904628 0.881232212425
F -3.758400364170 0.265908832359 0.791368990520
F -2.058220262501 0.322336729295 2.184616239356
C -1.680198500046 1.146188695518 0.038073276327
C -0.294161501827 0.776695162984 -0.298048216836
C 0.607506003511 1.746068207714 -0.744571927745
C 1.910092454736 1.403807747133 -1.073458875213
C 2.320515915330 0.069148221847 -0.971381242789
C 1.428118613185 -0.908128026901 -0.531883206993
C 0.119271803286 -0.562211284279 -0.197203199714
S 4.005765731631 -0.386981473870 -1.355886072033
C 4.716940265154 -0.308635669909 0.320502220081
O -2.854190770225 -2.285094505589 0.776251114351
O -2.205205061092 2.198633072332 -0.239955607718
H 2.611071076950 2.159043947753 -1.413104941785
H 0.262862686764 2.772608909479 -0.822566243448
H -0.498566672233 -2.531862229479 0.092173571907
H 1.754630849443 -1.942695822367 -0.466997480926
H 4.705611006357 0.714508519278 0.702847884716
H 4.181635437886 -0.971106025593 1.004461869005
H 5.752912720321 -0.646275519498 0.235126600905
