23

N -0.953256408882 -1.270272552965 -0.886240883353
C -2.293825607934 -1.047754173930 -0.708593830321
C -2.657395971584 0.137337871475 0.219068411838
F -3.681178847811 0.815462605074 -0.330664657608
F -3.088341859933 -0.418565846210 1.388377689096
C -1.524339386538 1.132142146694 0.591264310574
C -0.151934004315 0.687487808251 0.327056616494
C 0.932759102537 1.440491139060 0.788476085624
C 2.237836919485 1.046771256016 0.553768779271
C 2.485779291485 -0.125672896467 -0.178351840354
C 1.409402118770 -0.896208753246 -0.634354455223
C 0.100054270890 -0.491517453903 -0.395584984072
S 4.083345519392 -0.773392542754 -0.552296905731
C 5.258006726974 0.304774010474 0.307166513272
O -3.147641464551 -1.742005873478 -1.209883497553
O -1.822627422808 2.183156477729 1.112194064545
H 3.047541858771 1.647504796538 0.949085884135
H 0.722555726907 2.346792651184 1.349113070900
H -0.733651560878 -2.082714146282 -1.450583855842
H 1.598120183854 -1.815199190197 -1.185239052064
H 4.941169927312 1.349437147414 0.313274102328
H 5.401872654880 -0.017955537977 1.341799411814
H 6.205130649969 0.223114948690 -0.229104985568
