23

N -0.933990795317 -1.543430276377 0.147929581911
C -2.264722346343 -1.260354860604 0.306603216369
C -2.637851012625 0.240859651068 0.353845366449
F -3.520392623820 0.467959364645 -0.649350293135
F -3.268264877916 0.461480286939 1.533053828143
C -1.490205382815 1.279529990965 0.222847760876
C -0.130599358572 0.756076898463 0.057834550645
C 0.949195761685 1.636659774099 -0.072778593403
C 2.242497589091 1.172901435426 -0.226174561063
C 2.480947083655 -0.210310854341 -0.264566016542
C 1.410966524568 -1.101449788593 -0.146665780605
C 0.113488437807 -0.626563284657 0.025893152262
S 4.086802449067 -0.933444488410 -0.406181705739
C 5.062253754797 0.343866771975 -1.242429536031
O -3.111197964411 -2.118048590417 0.404788103283
O -1.775608540711 2.455760780965 0.261344740178
H 3.056202622642 1.883110118062 -0.310529117135
H 0.743296694167 2.702218918815 -0.042259821589
H -0.715228181875 -2.532220599921 0.122332044145
H 1.592969730847 -2.171936306788 -0.198872082730
H 4.701954761244 0.515640656465 -2.259152411538
H 5.106059585878 1.276839589796 -0.677657094532
H 6.075115024804 -0.063465812234 -1.298964114110
