23

N -0.705894252336 -1.621413153224 -0.262414229119
C -1.966032241826 -1.664635906453 0.272846666550
C -2.414885403556 -0.402294366467 1.046734401748
F -3.597741410256 -0.003194718516 0.525818234925
F -2.620164938949 -0.778434399505 2.334291080049
C -1.456086846167 0.820075259445 1.061916870317
C -0.147639351753 0.652825158743 0.414172318899
C 0.777748645715 1.704916717777 0.425210039304
C 2.016296410905 1.571083831895 -0.172692896394
C 2.346715246969 0.368482422931 -0.817663704604
C 1.433570212122 -0.682376496404 -0.844059845867
C 0.190781851676 -0.550724126969 -0.219907456963
S 3.939349815289 0.117328243788 -1.572105554713
C 4.013334860127 1.525187345588 -2.719354105575
O -2.690214301698 -2.627079895229 0.173075985228
O -1.826999933333 1.833430833119 1.608461949106
H 2.734618102697 2.382557537512 -0.124790781127
H 0.498328554515 2.623410597783 0.931407037005
H -0.425289811166 -2.466313406387 -0.745783721227
H 1.689217519428 -1.602748139581 -1.361158755433
H 3.251043953984 1.434721332104 -3.495825474439
H 3.913238008975 2.480197500035 -2.200267461720
H 5.001084923616 1.485700661078 -3.185316331107
