23

N -0.525571794372 -1.563758369103 -0.377252958026
C -1.758843722403 -1.792179522608 0.175844154719
C -2.333703111296 -0.641680198938 1.036146063182
F -3.452221469611 -0.195557471333 0.401409315673
F -2.698928190575 -1.164370296048 2.230622382126
C -1.427476715235 0.595830207315 1.298887038966
C -0.139672228352 0.643279897682 0.586100048307
C 0.692783249380 1.759004370316 0.724462939194
C 1.906325569124 1.830679423387 0.059789509267
C 2.310799900526 0.761579621887 -0.750592677432
C 1.500582278617 -0.364676027518 -0.881644252996
C 0.270202597889 -0.424818795672 -0.226839420839
S 3.893234743117 0.832171639336 -1.569376131996
C 3.358588113152 0.845221128406 -3.303902414367
O -2.377777596893 -2.814663747264 0.003878590020
O -1.829792215537 1.454262872731 2.049405259475
H 2.540620892485 2.705351257474 0.154265794814
H 0.354909194536 2.572276711752 1.358107239238
H -0.175455795126 -2.323840615045 -0.948498336171
H 1.833828104987 -1.203918329014 -1.485084911945
H 2.868684047937 -0.090084947802 -3.585285869366
H 2.693835689043 1.687896188396 -3.499568551337
H 4.262613759879 0.958864748478 -3.907317336464
