23

N -1.012426183451 -1.488634571099 0.151901689463
C -2.304741050444 -1.143745857123 0.448404565855
C -2.599666234977 0.375435080528 0.518742567687
F -3.451584797011 0.658440939524 -0.501431461473
F -3.240971660240 0.615076205395 1.684647156848
C -1.397700100754 1.354951337807 0.406105178897
C -0.094846690610 0.769408227832 0.080446913736
C 1.020576948311 1.592649069795 -0.102980127123
C 2.264313642452 1.071186816789 -0.408114970005
C 2.419005146684 -0.318003346057 -0.542477068773
C 1.314872795728 -1.154110762328 -0.341002141806
C 0.066275777814 -0.621251690749 -0.040935868938
S 3.921816680754 -1.169172953742 -0.907510243284
C 5.238399715265 0.081553464425 -0.939362355591
O -3.177911435944 -1.960522868470 0.630026082421
O -1.601951091932 2.537394758752 0.572873828205
H 3.095184962740 1.751608815770 -0.547305954631
H 0.882326856344 2.664763577751 0.000541357438
H -0.847586677962 -2.485384337993 0.082421488752
H 1.434679194070 -2.232079470336 -0.421497206246
H 5.765445129750 0.004726979729 -1.892238367491
H 4.845751226896 1.094704059685 -0.855474094407
H 5.931013921621 -0.096170043638 -0.114636533243
