Model_DS25_step1.pdb.A
 OpenBabel06212121203D

 23 24  0  0  0  0  0  0  0  0999 V2000
    8.3470   -4.5550   22.2310 N   0  0  0  0  0  0  0  0  0  0  0  0
    7.2950   -5.1110   21.6330 C   0  0  0  0  0  0  0  0  0  0  0  0
    6.3910   -4.2530   20.7330 C   0  0  0  0  0  0  0  0  0  0  0  0
    5.4140   -3.7240   21.4600 F   0  0  0  0  0  0  0  0  0  0  0  0
    5.8180   -4.9840   19.7400 F   0  0  0  0  0  0  0  0  0  0  0  0
    7.0430   -2.9860   20.2590 C   0  0  0  0  0  0  0  0  0  0  0  0
    8.0530   -2.4480   21.1310 C   0  0  0  0  0  0  0  0  0  0  0  0
    8.3040   -1.1010   21.1490 C   0  0  0  0  0  0  0  0  0  0  0  0
    9.1830   -0.5250   22.0670 C   0  0  0  0  0  0  0  0  0  0  0  0
    9.8520   -1.3130   22.9730 C   0  0  0  0  0  0  0  0  0  0  0  0
    9.6640   -2.6800   22.9230 C   0  0  0  0  0  0  0  0  0  0  0  0
    8.7130   -3.2380   22.0880 C   0  0  0  0  0  0  0  0  0  0  0  0
   10.8380   -0.5600   24.2700 S   0  0  0  0  0  0  0  0  0  0  0  0
   12.3200    0.2380   23.6000 C   0  0  0  0  0  0  0  0  0  0  0  0
    6.9990   -6.2950   21.7860 O   0  0  0  0  0  0  0  0  0  0  0  0
    6.4800   -2.3100   19.3840 O   0  0  0  0  0  0  0  0  0  0  0  0
    9.3330    0.5210   22.0640 H   0  0  0  0  0  0  0  0  0  0  0  0
    7.8060   -0.4730   20.4670 H   0  0  0  0  0  0  0  0  0  0  0  0
    8.8740   -5.1530   22.8050 H   0  0  0  0  0  0  0  0  0  0  0  0
   10.1800   -3.2990   23.6040 H   0  0  0  0  0  0  0  0  0  0  0  0
   12.9660    0.5480   24.4130 H   0  0  0  0  0  0  0  0  0  0  0  0
   12.0320    1.1070   23.0270 H   0  0  0  0  0  0  0  0  0  0  0  0
   12.8500   -0.4570   22.9600 H   0  0  0  0  0  0  0  0  0  0  0  0
  1  2  1  0  0  0  0
  1 12  1  0  0  0  0
  1 19  1  0  0  0  0
  2  3  1  0  0  0  0
  2 15  2  0  0  0  0
  3  4  1  0  0  0  0
  3  5  1  0  0  0  0
  3  6  1  0  0  0  0
  6  7  1  0  0  0  0
  6 16  2  0  0  0  0
  7  8  2  0  0  0  0
  7 12  1  0  0  0  0
  8  9  1  0  0  0  0
  8 18  1  0  0  0  0
  9 10  2  0  0  0  0
  9 17  1  0  0  0  0
 10 11  1  0  0  0  0
 10 13  1  0  0  0  0
 11 12  2  0  0  0  0
 11 20  1  0  0  0  0
 13 14  1  0  0  0  0
 14 21  1  0  0  0  0
 14 22  1  0  0  0  0
 14 23  1  0  0  0  0
M  END
$$$$
