26

N -0.768555 -1.392742 0.345305
C -2.045415 -1.149283 0.778258
C -2.527020 0.336460 0.688390
F -3.601470 0.370727 -0.171277
F -2.963772 0.708401 1.940534
C -1.485111 1.403098 0.200428
C -0.151714 0.917915 -0.222599
C 0.824889 1.830357 -0.677019
C 2.074043 1.387730 -1.128933
C 2.401532 0.008316 -1.070575
C 1.444177 -0.901820 -0.572838
C 0.176712 -0.464399 -0.151474
S 3.950764 -0.669532 -1.593164
C 5.071763 -0.303162 -0.219752
O -2.743795 -2.062810 1.192630
O -1.780145 2.593883 0.163524
H 2.781591 2.120826 -1.514267
H 0.566682 2.889705 -0.705640
H -0.518720 -2.369338 0.419540
H 1.689237 -1.963695 -0.522913
H 5.408528 0.735338 -0.295823
H 4.552056 -0.447292 0.733092
H 5.933361 -0.975314 -0.272444
O 3.186716 1.543377 1.938919
H 2.663530 1.717997 1.154518
H 2.883366 2.125306 2.635938
